10
	Energy:     179.9690527
C         -5.07961        1.29852       -0.00339
C         -3.25558        0.61570        0.00401
H         -5.53707        0.75853       -0.87804
H         -5.64736        2.24583        0.04113
H         -5.53981        0.71698        0.84439
H         -2.81009        1.17284       -0.84837
H         -2.69772       -0.35000       -0.04355
H         -2.81388        1.13140        0.88133
H         -4.40043        2.16420       -0.00389
H         -3.92663       -0.27441        0.00639
