5
-3.9037919722425670e+01 frame 0   xyz file generated by TeraChem
     C    -3.3231200000    2.0654700000    0.0000000000
     H    -2.2531200000    2.0654700000    0.0000000000
     H    -3.6797800000    1.9618600000    1.0034700000
     H    -3.6797800000    1.2482500000   -0.5914700000
     H    -3.6797800000    2.9863100000   -0.4120100000
5
-3.9141155735649150e+01 frame 1   xyz file generated by TeraChem
     C    -3.3231121240    2.0654712097   -0.0000031823
     H    -2.1996048331    1.9766765996    0.0397445494
     H    -3.6517386406    2.0388088758    1.0784448840
     H    -3.6517328801    1.2436522893   -0.6988360866
     H    -3.7893915249    3.0027510376   -0.4193601760
5
-3.9225885156688790e+01 frame 2   xyz file generated by TeraChem
     C    -3.3230953090    2.0654634197   -0.0000137577
     H    -2.1850672254    1.8362730669    0.1026101948
     H    -3.5841152058    2.1673294426    1.1312457596
     H    -3.5840470589    1.2898661731   -0.8298184253
     H    -3.9392552020    2.9684278564   -0.4040338010
5
-3.9294562746890726e+01 frame 3   xyz file generated by TeraChem
     C    -3.3230719373    2.0654415595   -0.0000275754
     H    -2.2378495298    1.6270701057    0.1962946654
     H    -3.4586221812    2.3659609539    1.1400759708
     H    -3.4583528827    1.4156308262   -0.9838386851
     H    -4.1376834735    2.8532565266   -0.3525142673
5
-3.9312311700426065e+01 frame 4   xyz file generated by TeraChem
     C    -3.3229001859    2.0653135805    0.0000683029
     H    -2.3601589421    1.3747111786    0.3054615736
     H    -3.2856002877    2.6083969751    1.0959940366
     H    -3.2911883724    1.6133651913   -1.1365384161
     H    -4.3557321944    2.6655730917   -0.2649954844
5
-3.9315794410052682e+01 frame 5   xyz file generated by TeraChem
     C    -3.3210196276    2.0654974666    0.0008970371
     H    -2.3464268645    1.4371145709    0.2693582039
     H    -3.3258981682    2.5540501815    1.0873758812
     H    -3.3096582083    1.5918236491   -1.0954808084
     H    -4.3125769183    2.6788740368   -0.2621603095
5
-3.9315738976011573e+01 frame 6   xyz file generated by TeraChem
     C    -3.3238364132    2.0658726348   -0.0027986041
     H    -2.3485228178    1.4697487067    0.2871776095
     H    -3.3071267717    2.5186279840    1.0871639444
     H    -3.3370499585    1.6024636132   -1.0881829598
     H    -4.2990438106    2.6706470040   -0.2833701921
5
-3.9315985779017794e+01 frame 7   xyz file generated by TeraChem
     C    -3.3223291069    2.0652413505    0.0003416982
     H    -2.3454537918    1.4556970501    0.2595897541
     H    -3.3311553088    2.5348139296    1.0829735814
     H    -3.3209077319    1.5928827658   -1.0812191086
     H    -4.2957338445    2.6787248473   -0.2616962233
5
-3.9316011680327016e+01 frame 8   xyz file generated by TeraChem
     C    -3.3227563198    2.0653264376   -0.0002091843
     H    -2.3459510294    1.4509372391    0.2661921840
     H    -3.3224954089    2.5371312694    1.0862946538
     H    -3.3227278347    1.5961064872   -1.0877480941
     H    -4.3016492197    2.6778583915   -0.2645398705
5
-3.9316016208495093e+01 frame 9   xyz file generated by TeraChem
     C    -3.3228394522    2.0653144832   -0.0002093686
     H    -2.3460935513    1.4525038084    0.2641377718
     H    -3.3221060473    2.5345212632    1.0859102954
     H    -3.3247355645    1.5965775405   -1.0863577727
     H    -4.2998052671    2.6784425705   -0.2634913189
5
-3.9316017606311632e+01 frame 10   xyz file generated by TeraChem
     C    -3.3228806224    2.0653090780   -0.0001538254
     H    -2.3462379577    1.4516526911    0.2624101973
     H    -3.3207151204    2.5337931168    1.0862107596
     H    -3.3261108875    1.5972713691   -1.0865661759
     H    -4.2996354869    2.6793333729   -0.2619111439
5
-3.9316021804030825e+01 frame 11   xyz file generated by TeraChem
     C    -3.3236749636    2.0653409454    0.0006111712
     H    -2.3492829884    1.4360286245    0.2311385369
     H    -3.2922334672    2.5190187721    1.0921910429
     H    -3.3535207261    1.6115201533   -1.0912243838
     H    -4.2968719133    2.6954528749   -0.2327263389
5
-3.9316023369924643e+01 frame 12   xyz file generated by TeraChem
     C    -3.3239365094    2.0654962042    0.0007610995
     H    -2.3509565186    1.4288842323    0.2177487474
     H    -3.2780731710    2.5121255829    1.0947878091
     H    -3.3669425689    1.6183213644   -1.0935496843
     H    -4.2956769082    2.7025339795   -0.2197564332
5
-3.9316024469717306e+01 frame 13   xyz file generated by TeraChem
     C    -3.3238541605    2.0657378910    0.0005754370
     H    -2.3516469565    1.4255927443    0.2124851217
     H    -3.2706624581    2.5091698403    1.0958842558
     H    -3.3740459986    1.6213248013   -1.0948376904
     H    -4.2953764629    2.7055350278   -0.2141141154
5
-3.9316024543142099e+01 frame 14   xyz file generated by TeraChem
     C    -3.3236499686    2.0658279427    0.0003995379
     H    -2.3515028608    1.4256568311    0.2128383534
     H    -3.2702986450    2.5096078516    1.0956620418
     H    -3.3746455083    1.6209383835   -1.0948116747
     H    -4.2954889032    2.7053290175   -0.2140948866
